reference
 OpenBabel05172308083D

 44 46  0  0  0  0  0  0  0  0999 V2000
  -15.0890  -19.4180  -25.7520 C   0  0  0  0  0  0  0  0  0  0  0  0
  -15.0850  -20.1720  -24.5570 C   0  0  0  0  0  0  0  0  0  0  0  0
  -14.8480  -20.0640  -26.9780 C   0  0  0  0  0  0  0  0  0  0  0  0
  -15.2960  -17.9470  -25.7450 C   0  0  0  0  0  0  0  0  0  0  0  0
  -14.7730  -21.5470  -24.5900 C   0  0  0  0  0  0  0  0  0  0  0  0
  -14.5570  -21.4280  -27.0020 C   0  0  0  0  0  0  0  0  0  0  0  0
  -14.4640  -22.1750  -25.8190 C   0  0  0  0  0  0  0  0  0  0  0  0
  -15.9990  -17.3440  -24.6970 N   0  0  0  0  0  0  0  0  0  0  0  0
  -16.2230  -16.0280  -24.5820 C   0  0  0  0  0  0  0  0  0  0  0  0
  -14.8460  -17.2350  -26.7390 N   0  0  0  0  0  0  0  0  0  0  0  0
  -14.9880  -15.8440  -26.7380 C   0  0  0  0  0  0  0  0  0  0  0  0
  -15.6480  -15.1780  -25.6800 C   0  0  0  0  0  0  0  0  0  0  0  0
  -15.7280  -13.7680  -25.6760 C   0  0  0  0  0  0  0  0  0  0  0  0
  -15.1220  -13.0350  -26.7190 C   0  0  0  0  0  0  0  0  0  0  0  0
  -14.4510  -13.6970  -27.7630 C   0  0  0  0  0  0  0  0  0  0  0  0
  -14.4100  -15.1000  -27.7850 C   0  0  0  0  0  0  0  0  0  0  0  0
  -16.8480  -15.5680  -23.6350 O   0  0  0  0  0  0  0  0  0  0  0  0
  -14.0600  -23.6410  -25.9290 C   0  0  0  0  0  0  0  0  0  0  0  0
  -15.3780  -24.4500  -25.9390 C   0  0  0  0  0  0  0  0  0  0  0  0
  -13.0690  -23.9720  -24.7860 C   0  0  0  0  0  0  0  0  0  0  0  0
  -13.3490  -23.8340  -27.1580 O   0  0  0  0  0  0  0  0  0  0  0  0
  -15.1860  -11.6860  -26.7390 Cl  0  0  0  0  0  0  0  0  0  0  0  0
  -13.0700  -25.1540  -27.6130 C   0  0  0  0  0  0  0  0  0  0  0  0
  -12.1060  -25.0500  -28.7990 C   0  0  0  0  0  0  0  0  0  0  0  0
  -10.8480  -24.6150  -28.3380 O   0  0  0  0  0  0  0  0  0  0  0  0
  -15.2890  -19.7070  -23.6050 H   0  0  0  0  0  0  0  0  0  0  0  0
  -14.8480  -19.5210  -27.9130 H   0  0  0  0  0  0  0  0  0  0  0  0
  -14.7510  -22.1000  -23.6640 H   0  0  0  0  0  0  0  0  0  0  0  0
  -14.3590  -21.8990  -27.9390 H   0  0  0  0  0  0  0  0  0  0  0  0
  -16.4070  -17.9380  -23.9880 H   0  0  0  0  0  0  0  0  0  0  0  0
  -16.2370  -13.2480  -24.8760 H   0  0  0  0  0  0  0  0  0  0  0  0
  -13.9900  -13.1220  -28.5530 H   0  0  0  0  0  0  0  0  0  0  0  0
  -13.8990  -15.6060  -28.5920 H   0  0  0  0  0  0  0  0  0  0  0  0
  -15.9130  -24.3370  -24.9950 H   0  0  0  0  0  0  0  0  0  0  0  0
  -16.0410  -24.0950  -26.7290 H   0  0  0  0  0  0  0  0  0  0  0  0
  -15.2480  -25.5150  -26.1100 H   0  0  0  0  0  0  0  0  0  0  0  0
  -13.5670  -23.9850  -23.8200 H   0  0  0  0  0  0  0  0  0  0  0  0
  -12.5150  -24.9020  -24.8990 H   0  0  0  0  0  0  0  0  0  0  0  0
  -12.3020  -23.1990  -24.7390 H   0  0  0  0  0  0  0  0  0  0  0  0
  -13.9900  -25.6250  -27.9580 H   0  0  0  0  0  0  0  0  0  0  0  0
  -12.6480  -25.7950  -26.8410 H   0  0  0  0  0  0  0  0  0  0  0  0
  -12.4670  -24.3730  -29.5700 H   0  0  0  0  0  0  0  0  0  0  0  0
  -11.9840  -26.0300  -29.2630 H   0  0  0  0  0  0  0  0  0  0  0  0
  -10.6320  -25.1060  -27.5580 H   0  0  0  0  0  0  0  0  0  0  0  0
  1  4  1  0  0  0  0
  1  2  2  0  0  0  0
  2 26  1  0  0  0  0
  3  1  1  0  0  0  0
  4  8  1  0  0  0  0
  5  2  1  0  0  0  0
  5 28  1  0  0  0  0
  6  3  2  0  0  0  0
  6  7  1  0  0  0  0
  7  5  2  0  0  0  0
  8  9  1  0  0  0  0
  8 30  1  0  0  0  0
  9 17  2  0  0  0  0
 10 11  1  0  0  0  0
 10  4  2  0  0  0  0
 11 12  2  0  0  0  0
 12 13  1  0  0  0  0
 12  9  1  0  0  0  0
 13 31  1  0  0  0  0
 14 13  2  0  0  0  0
 15 14  1  0  0  0  0
 16 15  2  0  0  0  0
 16 11  1  0  0  0  0
 18  7  1  0  0  0  0
 18 20  1  0  0  0  0
 19 18  1  0  0  0  0
 19 34  1  0  0  0  0
 20 39  1  0  0  0  0
 20 37  1  0  0  0  0
 21 18  1  0  0  0  0
 22 14  1  0  0  0  0
 23 21  1  0  0  0  0
 23 41  1  0  0  0  0
 24 25  1  0  0  0  0
 24 23  1  0  0  0  0
 25 44  1  0  0  0  0
 27  3  1  0  0  0  0
 29  6  1  0  0  0  0
 32 15  1  0  0  0  0
 33 16  1  0  0  0  0
 35 19  1  0  0  0  0
 36 19  1  0  0  0  0
 38 20  1  0  0  0  0
 40 23  1  0  0  0  0
 42 24  1  0  0  0  0
 43 24  1  0  0  0  0
M  END
$$$$
